Circuit: * tick-it

Error on line 2 : this is the fullstack website for cosmohack1 hackathon by rupandos
	 Unknown parameter "for"
Fatal Error: No analysis request found.
